Circuit: * C:\Users\HP\Desktop\DEDOR\Progetti\Amp_audio\amp_cell.asc

WARNING: Less than two connections to node VALPHA.  This node is used by A:U2:1.
WARNING: Less than two connections to node VALPHA2.  This node is used by A:U4:1.
Direct Newton iteration failed to find .op point.  (Use ".option noopiter" to skip.)
Starting Gmin stepping
Gmin = 10
Gmin = 1.07374
Gmin = 0.115292
Gmin = 0.0123794
Gmin = 0.00132923
Gmin = 0.000142725
vernier = 0.5
vernier = 0.25
vernier = 0.333333
Gmin = 9.72955e-005
vernier = 0.444444
Gmin = 3.8503e-005
vernier = 0.592592
vernier = 0.790123
Gmin = 8.80826e-006
vernier = 1
Gmin = 1.07562e-006
Gmin = 1.15494e-007
Gmin = 1.24011e-008
Gmin = 1.33156e-009
Gmin = 1.42975e-010
Gmin = 1.53518e-011
Gmin = 1.64839e-012
Gmin = 1.76994e-013
Gmin = 0
Gmin stepping succeeded in finding the operating point.


Date: Sun Sep 03 14:24:07 2023
Total elapsed time: 0.437 seconds.

tnom = 27
temp = 27
method = modified trap
totiter = 3518
traniter = 2549
tranpoints = 1145
accept = 1096
rejected = 49
matrix size = 78
fillins = 69
solver = Normal
Matrix Compiler1: 8.38 KB object code size  1.8/1.0/[0.6]
Matrix Compiler2: 7.75 KB object code size  1.3/1.5/[0.8]

